#EXTM3U
#EXT-X-VERSION:3
#EXT-X-STREAM-INF:PROGRAM-ID=1,BANDWIDTH=2560000
https://manifest.googlevideo.com/api/manifest/hls_playlist/expire/1669914441/ei/6YqIY8jNH5WZhwbpqo4I/ip/20.98.211.73/id/XWq5kBlakcQ.5/itag/96/source/yt_live_broadcast/requiressl/yes/ratebypass/yes/live/1/sgoap/gir%3Dyes%3Bitag%3D140/sgovp/gir%3Dyes%3Bitag%3D137/hls_chunk_host/rr5---sn-p5qlsnrl.googlevideo.com/playlist_duration/30/manifest_duration/30/vprv/1/playlist_type/DVR/mh/W6/mm/44/mn/sn-p5qlsnrl/ms/lva/mv/u/mvi/5/pl/18/dover/11/pacing/0/keepalive/yes/fexp/24001373,24007246/mt/1669892185/sparams/expire,ei,ip,id,itag,source,requiressl,ratebypass,live,sgoap,sgovp,playlist_duration,manifest_duration,vprv,playlist_type/sig/AOq0QJ8wRQIgYwHXJGI_MqE0ObG3RrA76smhOft_YYjc9wTJ4lAs7tsCIQDDLYNuot-5T7AcMcDL7yLdwpY3mQq3npBjTmCcCMfmAg%3D%3D/lsparams/hls_chunk_host,mh,mm,mn,ms,mv,mvi,pl/lsig/AG3C_xAwRQIhAIjBZ9Jm7RhZe-z1XlGS6pI4uWmxHQ6AGteWpFYo5SHCAiA84eyqe2g254oKZN7MbD45kZAj1B1H5kXYJzCFX-5uIA%3D%3D/playlist/index.m3u8
